50135286
  SciTegic12121612242D

 33 37  0  0  0  0            999 V2000
    4.9317   -0.8987    0.0000 O   0  0
    3.8926   -1.4991    0.0000 S   0  0
    4.9322   -2.0986    0.0000 O   0  0
    3.8936   -2.9999    0.0000 C   0  0
    2.5950   -3.7507    0.0000 C   0  0
    2.5960   -5.2507    0.0000 C   0  0
    3.8955   -5.9999    0.0000 C   0  0
    5.1941   -5.2491    0.0000 C   0  0
    5.1931   -3.7491    0.0000 C   0  0
    6.2320   -3.1484    0.0000 F   0  0
    3.8963   -7.1999    0.0000 F   0  0
   -2.6111    0.7486    0.0000 C   0  0
   -1.2964    1.4973    0.0000 N   0  0
    0.0000    0.7486    0.0000 C   0  0
    0.0000   -0.7486    0.0000 C   0  0
   -1.2964   -1.4973    0.0000 C   0  0
   -2.6111   -0.7486    0.0000 N   0  0
    1.2964   -1.4973    0.0000 C   0  0
    2.5929   -0.7486    0.0000 C   0  0
    2.5929    0.7486    0.0000 C   0  0
    1.2964    1.4973    0.0000 N   0  0
    3.6321    1.3486    0.0000 O   0  0
    1.2964    2.6973    0.0000 C   0  0
   -3.9122    1.4966    0.0000 N   0  0
   -9.2226   -1.2419    0.0000 N   0  0
  -10.1082   -0.0279    0.0000 C   0  0
   -9.2432    1.1646    0.0000 C   0  0
   -7.8173    0.7210    0.0000 C   0  0
   -6.5294    1.4977    0.0000 C   0  0
   -5.2109    0.7445    0.0000 C   0  0
   -5.1974   -0.7517    0.0000 C   0  0
   -6.5035   -1.5286    0.0000 C   0  0
   -7.8045   -0.7740    0.0000 C   0  0
  2  1  2  0
  3  2  2  0
  2  4  1  0
  4  5  2  0
  5  6  1  0
  6  7  2  0
  7  8  1  0
  8  9  2  0
  9  4  1  0
  9 10  1  0
  7 11  1  0
 12 13  1  0
 13 14  2  0
 14 15  1  0
 15 16  2  0
 16 17  1  0
 12 17  2  0
 18 19  2  0
 19 20  1  0
 20 21  1  0
 14 21  1  0
 15 18  1  0
 20 22  2  0
 21 23  1  0
 19  2  1  0
 25 26  1  0
 26 27  2  0
 27 28  1  0
 28 29  1  0
 29 30  2  0
 30 31  1  0
 31 32  2  0
 32 33  1  0
 25 33  1  0
 28 33  2  0
 24 30  1  0
 12 24  1  0
M  END
> <From> 
www.bindingDB.org

> <BindingDB Reactant_set_id>
50447608

> <Ligand InChI>
InChI=1S/C22H15F2N5O3S/c1-29-20-13(9-19(21(29)30)33(31,32)18-5-2-14(23)10-16(18)24)11-26-22(28-20)27-15-3-4-17-12(8-15)6-7-25-17/h2-11,25H,1H3,(H,26,27,28)

> <Ligand InChI Key>
ZEHBZHZMQSHZFI-UHFFFAOYSA-N

> <BindingDB MonomerID>
50135286

> <BindingDB Ligand Name>
CHEMBL3745885

> <Target Name Assigned by Curator or DataSource>
Receptor-interacting serine/threonine-protein kinase 3

> <Target Source Organism According to Curator or DataSource>
Homo sapiens

> <Ki (nM)>


> <IC50 (nM)>
>10000

> <Kd (nM)>


> <EC50 (nM)>


> <kon (M-1-s-1)>


> <koff (s-1)>


> <pH>


> <Temp C>


> <Curation/DataSource>
ChEMBL

> <Article DOI>


> <PMID>
26762835

> <PubChem AID>


> <Patent Number>


> <Authors>
Reddy, MV; Akula, B; Jatiani, S; Vasquez-Del Carpio, R; Billa, VK; Mallireddigari, MR; Cosenza, SC; Venkata Subbaiah, DR; Bharathi, EV; Pallela, VR; Ramkumar, P; Jain, R; Aggarwal, AK; Reddy, EP

> <Institution>
Icahn School of Medicine at Mount Sinai

> <Link to Ligand in BindingDB>
http://www.bindingdb.org/bind/chemsearch/marvin/MolStructure.jsp?monomerid=50135286

> <Link to Ligand-Target Pair in BindingDB>
http://www.bindingdb.org/jsp/dbsearch/PrimarySearch_ki.jsp?energyterm=kJ/mole&tag=pol&polymerid=50006237&target=Receptor-interacting+serine%2Fthreonine-protein+kinase+3&column=ki&startPg=0&Increment=50&submit=Search

> <Link to Ligand-Target Pair in BindingDB>
http://www.bindingdb.org/jsp/dbsearch/PrimarySearch_ki.jsp?energyterm=kJ/mole&tag=r21&monomerid=50135286&enzyme=Receptor-interacting+serine%2Fthreonine-protein+kinase+3&column=ki&startPg=0&Increment=50&submit=Search

> <Ligand HET ID in PDB>


> <PDB ID(s) for Ligand-Target Complex>


> <PubChem CID>
67240318

> <PubChem SID>
336951802

> <ChEBI ID of Ligand>


> <ChEMBL ID of Ligand>


> <DrugBank ID of Ligand>


> <IUPHAR_GRAC ID of Ligand>


> <KEGG ID of Ligand>


> <ZINC ID of Ligand>


> <Number of Protein Chains in Target (>1 implies a multichain complex)>
1

> <BindingDB Target Chain Sequence>
MSCVKLWPSGAPAPLVSIEELENQELVGKGGFGTVFRAQHRKWGYDVAVKIVNSKAISREVKAMASLDNEFVLRLEGVIEKVNWDQDPKPALVTKFMENGSLSGLLQSQCPRPWPLLCRLLKEVVLGMFYLHDQNPVLLHRDLKPSNVLLDPELHVKLADFGLSTFQGGSQSGTGSGEPGGTLGYLAPELFVNVNRKASTASDVYSFGILMWAVLAGREVELPTEPSLVYEAVCNRQNRPSLAELPQAGPETPGLEGLKELMQLCWSSEPKDRPSFQECLPKTDEVFQMVENNMNAAVSTVKDFLSQLRSSNRRFSIPESGQGGTEMDGFRRTIENQHSRNDVMVSEWLNKLNLEEPPSSVPKKCPSLTKRSRAQEEQVPQAWTAGTSSDSMAQPPQTPETSTFRNQMPSPTSTGTPSPGPRGNQGAERQGMNWSCRTPEPNPVTGRPLVNIYNCSGVQVGDNNYLTMQQTTALPTWGLAPSGKGRGLQHPPPVGSQEGPKDPEAWSRPQGWYNHSGK

> <PDB ID(s) of Target Chain>


> <UniProt (SwissProt) Recommended Name of Target Chain>
Receptor-interacting serine/threonine-protein kinase 3

> <UniProt (SwissProt) Entry Name of Target Chain>
RIPK3_HUMAN

> <UniProt (SwissProt) Primary ID of Target Chain>
Q9Y572

> <UniProt (SwissProt) Secondary ID(s) of Target Chain>
B4DJL9,C4AM87,Q5J795,Q5J796,Q6P5Y1

> <UniProt (SwissProt) Alternative ID(s) of Target Chain>


> <UniProt (TrEMBL) Submitted Name of Target Chain>


> <UniProt (TrEMBL) Entry Name of Target Chain>


> <UniProt (TrEMBL) Primary ID of Target Chain>


> <UniProt (TrEMBL) Secondary ID(s) of Target Chain>


> <UniProt (TrEMBL) Alternative ID(s) of Target Chain>


$$$$
50401152
  Mrv0541 07291622282D          

 24 26  0  0  0  0            999 V2000
    8.8610   -8.0041    0.0000 N   0  0  0  0  0  0  0  0  0  0  0  0
    8.8599   -8.8314    0.0000 C   0  0  0  0  0  0  0  0  0  0  0  0
    9.5746   -9.2443    0.0000 C   0  0  0  0  0  0  0  0  0  0  0  0
   10.2911   -8.8309    0.0000 C   0  0  0  0  0  0  0  0  0  0  0  0
   10.2882   -8.0005    0.0000 C   0  0  0  0  0  0  0  0  0  0  0  0
    9.5728   -7.5913    0.0000 C   0  0  0  0  0  0  0  0  0  0  0  0
    9.5737  -10.0700    0.0000 S   0  0  0  0  0  0  0  0  0  0  0  0
   10.2888  -10.4819    0.0000 N   0  0  0  0  0  0  0  0  0  0  0  0
    8.7432  -10.0843    0.0000 O   0  0  0  0  0  0  0  0  0  0  0  0
    8.9977  -10.6606    0.0000 O   0  0  0  0  0  0  0  0  0  0  0  0
   10.9981   -7.5865    0.0000 C   0  0  0  0  0  0  0  0  0  0  0  0
   11.7144   -7.9980    0.0000 C   0  0  0  0  0  0  0  0  0  0  0  0
   11.7031   -6.3481    0.0000 C   0  0  0  0  0  0  0  0  0  0  0  0
   10.9937   -6.7650    0.0000 C   0  0  0  0  0  0  0  0  0  0  0  0
   12.4241   -6.7577    0.0000 N   0  0  0  0  0  0  0  0  0  0  0  0
   12.4271   -7.5815    0.0000 C   0  0  0  0  0  0  0  0  0  0  0  0
   13.2114   -7.8332    0.0000 N   0  0  0  0  0  0  0  0  0  0  0  0
   13.6933   -7.1651    0.0000 C   0  0  0  0  0  0  0  0  0  0  0  0
   13.2067   -6.5004    0.0000 N   0  0  0  0  0  0  0  0  0  0  0  0
   14.5183   -7.1620    0.0000 N   0  0  0  0  0  0  0  0  0  0  0  0
   10.2897  -11.3069    0.0000 C   0  0  0  0  0  0  0  0  0  0  0  0
   11.0046  -11.7187    0.0000 C   0  0  0  0  0  0  0  0  0  0  0  0
    9.5757  -11.7202    0.0000 C   0  0  0  0  0  0  0  0  0  0  0  0
   10.2832  -12.1291    0.0000 C   0  0  0  0  0  0  0  0  0  0  0  0
  1  2  2  0  0  0  0
  2  3  1  0  0  0  0
  3  4  2  0  0  0  0
  4  5  1  0  0  0  0
  5  6  2  0  0  0  0
  6  1  1  0  0  0  0
  3  7  1  0  0  0  0
  7  8  1  0  0  0  0
  7  9  2  0  0  0  0
  7 10  2  0  0  0  0
 11 12  2  0  0  0  0
 12 16  1  0  0  0  0
 15 13  1  0  0  0  0
 13 14  2  0  0  0  0
 14 11  1  0  0  0  0
  5 11  1  0  0  0  0
 15 16  1  0  0  0  0
 16 17  2  0  0  0  0
 17 18  1  0  0  0  0
 18 19  2  0  0  0  0
 19 15  1  0  0  0  0
 18 20  1  0  0  0  0
  8 21  1  0  0  0  0
 21 22  1  0  0  0  0
 21 23  1  0  0  0  0
 21 24  1  0  0  0  0
M  END
> <From> 
www.bindingDB.org

> <BindingDB Reactant_set_id>
50978457

> <Ligand InChI>
InChI=1S/C15H18N6O2S/c1-15(2,3)20-24(22,23)12-6-11(8-17-9-12)10-4-5-21-13(7-10)18-14(16)19-21/h4-9,20H,1-3H3,(H2,16,19)

> <Ligand InChI Key>
IVYWKCAOPCHVMX-UHFFFAOYSA-N

> <BindingDB MonomerID>
50401152

> <BindingDB Ligand Name>
CHEMBL2205766

> <Target Name Assigned by Curator or DataSource>
Receptor-interacting serine/threonine-protein kinase 3

> <Target Source Organism According to Curator or DataSource>
Homo sapiens

> <Ki (nM)>


> <IC50 (nM)>
<10000

> <Kd (nM)>


> <EC50 (nM)>


> <kon (M-1-s-1)>


> <koff (s-1)>


> <pH>


> <Temp C>


> <Curation/DataSource>
ChEMBL

> <Article DOI>
10.1016/j.bmcl.2012.05.090

> <PMID>
22726925

> <PubChem AID>


> <Patent Number>


> <Authors>
Sunose, M; Bell, K; Ellard, K; Bergamini, G; Neubauer, G; Werner, T; Ramsden, N

> <Institution>
Cellzome Ltd

> <Link to Ligand in BindingDB>
http://www.bindingdb.org/bind/chemsearch/marvin/MolStructure.jsp?monomerid=50401152

> <Link to Ligand-Target Pair in BindingDB>
http://www.bindingdb.org/jsp/dbsearch/PrimarySearch_ki.jsp?energyterm=kJ/mole&tag=pol&polymerid=50006237&target=Receptor-interacting+serine%2Fthreonine-protein+kinase+3&column=ki&startPg=0&Increment=50&submit=Search

> <Link to Ligand-Target Pair in BindingDB>
http://www.bindingdb.org/jsp/dbsearch/PrimarySearch_ki.jsp?energyterm=kJ/mole&tag=r21&monomerid=50401152&enzyme=Receptor-interacting+serine%2Fthreonine-protein+kinase+3&column=ki&startPg=0&Increment=50&submit=Search

> <Ligand HET ID in PDB>


> <PDB ID(s) for Ligand-Target Complex>


> <PubChem CID>
44557921

> <PubChem SID>
163350176

> <ChEBI ID of Ligand>


> <ChEMBL ID of Ligand>
CHEMBL2205766

> <DrugBank ID of Ligand>


> <IUPHAR_GRAC ID of Ligand>


> <KEGG ID of Ligand>


> <ZINC ID of Ligand>
ZINC95562659

> <Number of Protein Chains in Target (>1 implies a multichain complex)>
1

> <BindingDB Target Chain Sequence>
MSCVKLWPSGAPAPLVSIEELENQELVGKGGFGTVFRAQHRKWGYDVAVKIVNSKAISREVKAMASLDNEFVLRLEGVIEKVNWDQDPKPALVTKFMENGSLSGLLQSQCPRPWPLLCRLLKEVVLGMFYLHDQNPVLLHRDLKPSNVLLDPELHVKLADFGLSTFQGGSQSGTGSGEPGGTLGYLAPELFVNVNRKASTASDVYSFGILMWAVLAGREVELPTEPSLVYEAVCNRQNRPSLAELPQAGPETPGLEGLKELMQLCWSSEPKDRPSFQECLPKTDEVFQMVENNMNAAVSTVKDFLSQLRSSNRRFSIPESGQGGTEMDGFRRTIENQHSRNDVMVSEWLNKLNLEEPPSSVPKKCPSLTKRSRAQEEQVPQAWTAGTSSDSMAQPPQTPETSTFRNQMPSPTSTGTPSPGPRGNQGAERQGMNWSCRTPEPNPVTGRPLVNIYNCSGVQVGDNNYLTMQQTTALPTWGLAPSGKGRGLQHPPPVGSQEGPKDPEAWSRPQGWYNHSGK

> <PDB ID(s) of Target Chain>


> <UniProt (SwissProt) Recommended Name of Target Chain>
Receptor-interacting serine/threonine-protein kinase 3

> <UniProt (SwissProt) Entry Name of Target Chain>
RIPK3_HUMAN

> <UniProt (SwissProt) Primary ID of Target Chain>
Q9Y572

> <UniProt (SwissProt) Secondary ID(s) of Target Chain>
B4DJL9,C4AM87,Q5J795,Q5J796,Q6P5Y1

> <UniProt (SwissProt) Alternative ID(s) of Target Chain>


> <UniProt (TrEMBL) Submitted Name of Target Chain>


> <UniProt (TrEMBL) Entry Name of Target Chain>


> <UniProt (TrEMBL) Primary ID of Target Chain>


> <UniProt (TrEMBL) Secondary ID(s) of Target Chain>


> <UniProt (TrEMBL) Alternative ID(s) of Target Chain>


$$$$
50184765
  SciTegic12211613342D

 28 31  0  0  0  0            999 V2000
    4.9317   -0.8987    0.0000 O   0  0
    3.8926   -1.4991    0.0000 S   0  0
    3.8924   -0.2991    0.0000 O   0  0
   -1.2964    1.4973    0.0000 N   0  0
   -2.6111    0.7486    0.0000 C   0  0
   -2.6111   -0.7486    0.0000 C   0  0
   -1.2964   -1.4973    0.0000 C   0  0
    0.0000   -0.7486    0.0000 C   0  0
    1.2964   -1.4973    0.0000 C   0  0
    2.5929   -0.7486    0.0000 C   0  0
    2.5929    0.7486    0.0000 C   0  0
    1.2964    1.4973    0.0000 C   0  0
    0.0000    0.7486    0.0000 C   0  0
   -1.2907   -2.9981    0.0000 N   0  0
   -4.9239   -4.2502    0.0000 N   0  0
   -3.9138   -3.1377    0.0000 N   0  0
   -2.5870   -3.7544    0.0000 C   0  0
   -2.7175   -5.2300    0.0000 C   0  0
   -1.6965   -6.3344    0.0000 C   0  0
   -2.1689   -7.7788    0.0000 C   0  0
   -3.6305   -8.0934    0.0000 C   0  0
   -4.6553   -6.9712    0.0000 C   0  0
   -4.1791   -5.5446    0.0000 C   0  0
   -1.3657   -8.6703    0.0000 F   0  0
    3.8936   -2.9999    0.0000 C   0  0
    4.9328   -3.5999    0.0000 C   0  0
    2.8545   -3.6002    0.0000 C   0  0
    3.8938   -4.1999    0.0000 C   0  0
  2  1  2  0
  3  2  2  0
  4  5  2  0
  5  6  1  0
  6  7  2  0
  7  8  1  0
  8  9  2  0
  9 10  1  0
 10 11  2  0
 11 12  1  0
 12 13  2  0
  4 13  1  0
  8 13  1  0
  7 14  1  0
 10  2  1  0
 15 16  1  0
 16 17  2  0
 17 18  1  0
 18 19  1  0
 19 20  2  0
 20 21  1  0
 21 22  2  0
 22 23  1  0
 15 23  1  0
 18 23  2  0
 20 24  1  0
 14 17  1  0
  2 25  1  0
 25 26  1  0
 25 27  1  0
 25 28  1  0
M  END
> <From> 
www.bindingDB.org

> <BindingDB Reactant_set_id>
50505212

> <Ligand InChI>
InChI=1S/C20H19FN4O2S/c1-20(2,3)28(26,27)13-5-7-16-14(11-13)17(8-9-22-16)23-19-15-10-12(21)4-6-18(15)24-25-19/h4-11H,1-3H3,(H2,22,23,24,25)

> <Ligand InChI Key>
XLOGLWKOHPIJLV-UHFFFAOYSA-N

> <BindingDB MonomerID>
50184765

> <BindingDB Ligand Name>
CHEMBL3823499

> <Target Name Assigned by Curator or DataSource>
Receptor-interacting serine/threonine-protein kinase 3

> <Target Source Organism According to Curator or DataSource>
Homo sapiens

> <Ki (nM)>


> <IC50 (nM)>
 16

> <Kd (nM)>


> <EC50 (nM)>


> <kon (M-1-s-1)>


> <koff (s-1)>


> <pH>


> <Temp C>


> <Curation/DataSource>
ChEMBL

> <Article DOI>


> <PMID>
27109867

> <PubChem AID>


> <Patent Number>


> <Authors>
Haile, PA; Votta, BJ; Marquis, RW; Bury, MJ; Mehlmann, JF; Singhaus, R; Charnley, AK; Lakdawala, AS; Convery, MA; Lipshutz, DB; Desai, BM; Swift, B; Capriotti, CA; Berger, SB; Mahajan, MK; Reilly, MA; Rivera, EJ; Sun, HH; Nagilla, R; Beal, AM; Finger, JN; Cook, MN; King, BW; Ouellette, MT; Totoritis, RD; Pierdomenico, M; Negroni, A; Stronati, L; Cucchiara, S; Ziólkowski, B; Vossenkämper, A; MacDonald, TT; Gough, PJ; Bertin, J; Casillas, LN

> <Institution>
GlaxoSmithKline

> <Link to Ligand in BindingDB>
http://www.bindingdb.org/bind/chemsearch/marvin/MolStructure.jsp?monomerid=50184765

> <Link to Ligand-Target Pair in BindingDB>
http://www.bindingdb.org/jsp/dbsearch/PrimarySearch_ki.jsp?energyterm=kJ/mole&tag=pol&polymerid=50006237&target=Receptor-interacting+serine%2Fthreonine-protein+kinase+3&column=ki&startPg=0&Increment=50&submit=Search

> <Link to Ligand-Target Pair in BindingDB>
http://www.bindingdb.org/jsp/dbsearch/PrimarySearch_ki.jsp?energyterm=kJ/mole&tag=r21&monomerid=50184765&enzyme=Receptor-interacting+serine%2Fthreonine-protein+kinase+3&column=ki&startPg=0&Increment=50&submit=Search

> <Ligand HET ID in PDB>


> <PDB ID(s) for Ligand-Target Complex>


> <PubChem CID>
44412385

> <PubChem SID>
104069084

> <ChEBI ID of Ligand>


> <ChEMBL ID of Ligand>
CHEMBL210944

> <DrugBank ID of Ligand>


> <IUPHAR_GRAC ID of Ligand>


> <KEGG ID of Ligand>


> <ZINC ID of Ligand>
ZINC36773180

> <Number of Protein Chains in Target (>1 implies a multichain complex)>
1

> <BindingDB Target Chain Sequence>
MSCVKLWPSGAPAPLVSIEELENQELVGKGGFGTVFRAQHRKWGYDVAVKIVNSKAISREVKAMASLDNEFVLRLEGVIEKVNWDQDPKPALVTKFMENGSLSGLLQSQCPRPWPLLCRLLKEVVLGMFYLHDQNPVLLHRDLKPSNVLLDPELHVKLADFGLSTFQGGSQSGTGSGEPGGTLGYLAPELFVNVNRKASTASDVYSFGILMWAVLAGREVELPTEPSLVYEAVCNRQNRPSLAELPQAGPETPGLEGLKELMQLCWSSEPKDRPSFQECLPKTDEVFQMVENNMNAAVSTVKDFLSQLRSSNRRFSIPESGQGGTEMDGFRRTIENQHSRNDVMVSEWLNKLNLEEPPSSVPKKCPSLTKRSRAQEEQVPQAWTAGTSSDSMAQPPQTPETSTFRNQMPSPTSTGTPSPGPRGNQGAERQGMNWSCRTPEPNPVTGRPLVNIYNCSGVQVGDNNYLTMQQTTALPTWGLAPSGKGRGLQHPPPVGSQEGPKDPEAWSRPQGWYNHSGK

> <PDB ID(s) of Target Chain>


> <UniProt (SwissProt) Recommended Name of Target Chain>
Receptor-interacting serine/threonine-protein kinase 3

> <UniProt (SwissProt) Entry Name of Target Chain>
RIPK3_HUMAN

> <UniProt (SwissProt) Primary ID of Target Chain>
Q9Y572

> <UniProt (SwissProt) Secondary ID(s) of Target Chain>
B4DJL9,C4AM87,Q5J795,Q5J796,Q6P5Y1

> <UniProt (SwissProt) Alternative ID(s) of Target Chain>


> <UniProt (TrEMBL) Submitted Name of Target Chain>


> <UniProt (TrEMBL) Entry Name of Target Chain>


> <UniProt (TrEMBL) Primary ID of Target Chain>


> <UniProt (TrEMBL) Secondary ID(s) of Target Chain>


> <UniProt (TrEMBL) Alternative ID(s) of Target Chain>


$$$$
